Distribution/13Bus_not_used/IEEE13Nodeckt_VLN_Node.Txt

LINE-GROUND and LINE-LINE VOLTAGES BY BUS & NODE

Bus       Node    VLN (kV)   Angle      pu     Base kV    Node-Node   VLL (kV)  Angle      pu

SOURCEBUS 1       69.714 /_   30.0      1.05   115.000        1-2     120.75 /_   60.0      1.05
   -      2       69.715 /_  -90.0      1.05   115.000        2-3     120.75 /_  -60.0      1.05
   -      3       69.712 /_  150.0      1.05   115.000        3-1     120.75 /_  180.0      1.05
650 ..... 1       2.5217 /_    0.0    1.0499     4.160        1-2     4.3678 /_   30.0    1.0499
   -      2       2.5218 /_ -120.0      1.05     4.160        2-3     4.3679 /_  -90.0      1.05
   -      3       2.5217 /_  120.0    1.0499     4.160        3-1     4.3676 /_  150.0    1.0499
RG60 .... 1       2.5434 /_   -0.4     1.059     4.160        1-2     4.3801 /_   29.5    1.0529
   -      2       2.5165 /_ -120.3    1.0478     4.160        2-3     4.3848 /_  -90.2     1.054
   -      3       2.5436 /_  119.6    1.0591     4.160        3-1     4.4049 /_  149.6    1.0589
633 ..... 1       2.4363 /_   -3.0    1.0144     4.160        1-2     4.2493 /_   27.9    1.0215
   -      2       2.4926 /_ -122.1    1.0378     4.160        2-3     4.2604 /_  -92.9    1.0241
   -      3       2.4131 /_  117.4    1.0047     4.160        3-1     4.2069 /_  147.4    1.0113
634 ..... 1      0.27444 /_   -3.7   0.99031     0.480        1-2    0.47961 /_   27.4   0.99919
   -      2      0.28251 /_ -122.5    1.0194     0.480        2-3    0.48266 /_  -93.4    1.0055
   -      3      0.27316 /_  116.9   0.98568     0.480        3-1     0.4755 /_  146.7   0.99063
671 ..... 1        2.368 /_   -5.7   0.98596     4.160        1-2     4.1708 /_   26.9    1.0026
   -      2       2.5248 /_ -122.7    1.0512     4.160        2-3     4.2379 /_  -94.8    1.0187
   -      3       2.3256 /_  115.6   0.96827     4.160        3-1     4.0921 /_  145.2   0.98367
645 ..... 2       2.4751 /_ -122.2    1.0305     4.160        2-3     4.2431 /_  -92.8      1.02
   -      3       2.4147 /_  117.4    1.0054     4.160
646 ..... 2       2.4709 /_ -122.3    1.0288     4.160        2-3     4.2327 /_  -92.8    1.0175
   -      3       2.4098 /_  117.4    1.0034     4.160
692 ..... 1        2.368 /_   -5.7   0.98596     4.160        1-2     4.1708 /_   26.9    1.0026
   -      2       2.5248 /_ -122.7    1.0512     4.160        2-3     4.2379 /_  -94.8    1.0187
   -      3       2.3256 /_  115.6   0.96827     4.160        3-1     4.0921 /_  145.2   0.98367
675 ..... 1       2.3524 /_   -6.0   0.97945     4.160        1-2      4.161 /_   26.9    1.0002
   -      2       2.5305 /_ -122.8    1.0536     4.160        2-3      4.235 /_  -95.0     1.018
   -      3        2.321 /_  115.6   0.96636     4.160        3-1     4.0797 /_  145.0    0.9807
611 ..... 3       2.3159 /_  115.4   0.96423     4.160
652 ..... 1       2.3501 /_   -5.7   0.97847     4.160
670 ..... 1       2.4189 /_   -3.8    1.0071     4.160        1-2     4.2294 /_   27.6    1.0167
   -      2       2.5043 /_ -122.2    1.0427     4.160        2-3     4.2567 /_  -93.6    1.0232
   -      3       2.3849 /_  116.7   0.99298     4.160        3-1     4.1716 /_  146.7    1.0028
632 ..... 1       2.4436 /_   -2.9    1.0174     4.160        1-2     4.2599 /_   27.9     1.024
   -      2       2.4971 /_ -122.0    1.0397     4.160        2-3     4.2708 /_  -92.9    1.0266
   -      3       2.4194 /_  117.4    1.0074     4.160        3-1     4.2174 /_  147.4    1.0138
680 ..... 1        2.368 /_   -5.7   0.98596     4.160        1-2     4.1708 /_   26.9    1.0026
   -      2       2.5248 /_ -122.7    1.0512     4.160        2-3     4.2379 /_  -94.8    1.0187
   -      3       2.3256 /_  115.6   0.96827     4.160        3-1     4.0921 /_  145.2   0.98367
684 ..... 1       2.3634 /_   -5.8   0.98402     4.160
   -      3       2.3207 /_  115.5   0.96624     4.160        3-1     4.0822 /_  145.2    0.9813
